<?xml version="1.0" encoding="UTF-8"?>

<!-- generated on 2021-11-01 09:39:12 by Eclipse SUMO duarouter Version 1.10.0
<configuration xmlns:xsi="http://www.w3.org/2001/XMLSchema-instance" xsi:noNamespaceSchemaLocation="http://sumo.dlr.de/xsd/duarouterConfiguration.xsd">

    <input>
        <net-file value="phunhuan.net.xml"/>
        <route-files value="flows.xml"/>
    </input>

    <output>
        <output-file value="phunhuan.rou.xml"/>
        <alternatives-output value="phunhuan.rou.alt.xml"/>
    </output>

</configuration>
-->

<routes xmlns:xsi="http://www.w3.org/2001/XMLSchema-instance" xsi:noNamespaceSchemaLocation="http://sumo.dlr.de/xsd/routes_file.xsd">
    <vehicle id="1.0" depart="0.00" color="red">
        <route edges="615787306#8 615787306#9 32577828#0 32577828#1"/>
    </vehicle>
    <vehicle id="2.0" depart="0.00" color="yellow">
        <route edges="817909960#5 -817085858 32577828#0 32577828#1"/>
    </vehicle>
    <vehicle id="3.0" depart="0.00" color="green">
        <route edges="409101012#5 -817085858 32577828#0 32577828#1"/>
    </vehicle>
    <vehicle id="4.0" depart="0.00" color="red">
        <route edges="817909960#4 817909960#5 -409101012#5 -409101012#4"/>
    </vehicle>
    <vehicle id="5.0" depart="0.00" color="yellow">
        <route edges="409101012#4 409101012#5 366065242#0"/>
    </vehicle>
    <vehicle id="6.0" depart="0.00" color="green">
        <route edges="615787306#8 615787306#9 366065241#0"/>
    </vehicle>
    <vehicle id="1.1" depart="7.20" color="red">
        <route edges="615787306#8 615787306#9 32577828#0 32577828#1"/>
    </vehicle>
    <vehicle id="2.1" depart="7.20" color="yellow">
        <route edges="817909960#5 -817085858 32577828#0 32577828#1"/>
    </vehicle>
    <vehicle id="3.1" depart="7.20" color="green">
        <route edges="409101012#5 -817085858 32577828#0 32577828#1"/>
    </vehicle>
    <vehicle id="4.1" depart="7.20" color="red">
        <route edges="817909960#4 817909960#5 -409101012#5 -409101012#4"/>
    </vehicle>
    <vehicle id="5.1" depart="7.20" color="yellow">
        <route edges="409101012#4 409101012#5 366065242#0"/>
    </vehicle>
    <vehicle id="6.1" depart="7.20" color="green">
        <route edges="615787306#8 615787306#9 366065241#0"/>
    </vehicle>
    <vehicle id="1.2" depart="14.40" color="red">
        <route edges="615787306#8 615787306#9 32577828#0 32577828#1"/>
    </vehicle>
    <vehicle id="2.2" depart="14.40" color="yellow">
        <route edges="817909960#5 -817085858 32577828#0 32577828#1"/>
    </vehicle>
    <vehicle id="3.2" depart="14.40" color="green">
        <route edges="409101012#5 -817085858 32577828#0 32577828#1"/>
    </vehicle>
    <vehicle id="4.2" depart="14.40" color="red">
        <route edges="817909960#4 817909960#5 -409101012#5 -409101012#4"/>
    </vehicle>
    <vehicle id="5.2" depart="14.40" color="yellow">
        <route edges="409101012#4 409101012#5 366065242#0"/>
    </vehicle>
    <vehicle id="6.2" depart="14.40" color="green">
        <route edges="615787306#8 615787306#9 366065241#0"/>
    </vehicle>
    <vehicle id="1.3" depart="21.60" color="red">
        <route edges="615787306#8 615787306#9 32577828#0 32577828#1"/>
    </vehicle>
    <vehicle id="2.3" depart="21.60" color="yellow">
        <route edges="817909960#5 -817085858 32577828#0 32577828#1"/>
    </vehicle>
    <vehicle id="3.3" depart="21.60" color="green">
        <route edges="409101012#5 -817085858 32577828#0 32577828#1"/>
    </vehicle>
    <vehicle id="4.3" depart="21.60" color="red">
        <route edges="817909960#4 817909960#5 -409101012#5 -409101012#4"/>
    </vehicle>
    <vehicle id="5.3" depart="21.60" color="yellow">
        <route edges="409101012#4 409101012#5 366065242#0"/>
    </vehicle>
    <vehicle id="6.3" depart="21.60" color="green">
        <route edges="615787306#8 615787306#9 366065241#0"/>
    </vehicle>
    <vehicle id="1.4" depart="28.80" color="red">
        <route edges="615787306#8 615787306#9 32577828#0 32577828#1"/>
    </vehicle>
    <vehicle id="2.4" depart="28.80" color="yellow">
        <route edges="817909960#5 -817085858 32577828#0 32577828#1"/>
    </vehicle>
    <vehicle id="3.4" depart="28.80" color="green">
        <route edges="409101012#5 -817085858 32577828#0 32577828#1"/>
    </vehicle>
    <vehicle id="4.4" depart="28.80" color="red">
        <route edges="817909960#4 817909960#5 -409101012#5 -409101012#4"/>
    </vehicle>
    <vehicle id="5.4" depart="28.80" color="yellow">
        <route edges="409101012#4 409101012#5 366065242#0"/>
    </vehicle>
    <vehicle id="6.4" depart="28.80" color="green">
        <route edges="615787306#8 615787306#9 366065241#0"/>
    </vehicle>
    <vehicle id="1.5" depart="36.00" color="red">
        <route edges="615787306#8 615787306#9 32577828#0 32577828#1"/>
    </vehicle>
    <vehicle id="2.5" depart="36.00" color="yellow">
        <route edges="817909960#5 -817085858 32577828#0 32577828#1"/>
    </vehicle>
    <vehicle id="3.5" depart="36.00" color="green">
        <route edges="409101012#5 -817085858 32577828#0 32577828#1"/>
    </vehicle>
    <vehicle id="4.5" depart="36.00" color="red">
        <route edges="817909960#4 817909960#5 -409101012#5 -409101012#4"/>
    </vehicle>
    <vehicle id="5.5" depart="36.00" color="yellow">
        <route edges="409101012#4 409101012#5 366065242#0"/>
    </vehicle>
    <vehicle id="6.5" depart="36.00" color="green">
        <route edges="615787306#8 615787306#9 366065241#0"/>
    </vehicle>
    <vehicle id="1.6" depart="43.20" color="red">
        <route edges="615787306#8 615787306#9 32577828#0 32577828#1"/>
    </vehicle>
    <vehicle id="2.6" depart="43.20" color="yellow">
        <route edges="817909960#5 -817085858 32577828#0 32577828#1"/>
    </vehicle>
    <vehicle id="3.6" depart="43.20" color="green">
        <route edges="409101012#5 -817085858 32577828#0 32577828#1"/>
    </vehicle>
    <vehicle id="4.6" depart="43.20" color="red">
        <route edges="817909960#4 817909960#5 -409101012#5 -409101012#4"/>
    </vehicle>
    <vehicle id="5.6" depart="43.20" color="yellow">
        <route edges="409101012#4 409101012#5 366065242#0"/>
    </vehicle>
    <vehicle id="6.6" depart="43.20" color="green">
        <route edges="615787306#8 615787306#9 366065241#0"/>
    </vehicle>
    <vehicle id="1.7" depart="50.40" color="red">
        <route edges="615787306#8 615787306#9 32577828#0 32577828#1"/>
    </vehicle>
    <vehicle id="2.7" depart="50.40" color="yellow">
        <route edges="817909960#5 -817085858 32577828#0 32577828#1"/>
    </vehicle>
    <vehicle id="3.7" depart="50.40" color="green">
        <route edges="409101012#5 -817085858 32577828#0 32577828#1"/>
    </vehicle>
    <vehicle id="4.7" depart="50.40" color="red">
        <route edges="817909960#4 817909960#5 -409101012#5 -409101012#4"/>
    </vehicle>
    <vehicle id="5.7" depart="50.40" color="yellow">
        <route edges="409101012#4 409101012#5 366065242#0"/>
    </vehicle>
    <vehicle id="6.7" depart="50.40" color="green">
        <route edges="615787306#8 615787306#9 366065241#0"/>
    </vehicle>
    <vehicle id="1.8" depart="57.60" color="red">
        <route edges="615787306#8 615787306#9 32577828#0 32577828#1"/>
    </vehicle>
    <vehicle id="2.8" depart="57.60" color="yellow">
        <route edges="817909960#5 -817085858 32577828#0 32577828#1"/>
    </vehicle>
    <vehicle id="3.8" depart="57.60" color="green">
        <route edges="409101012#5 -817085858 32577828#0 32577828#1"/>
    </vehicle>
    <vehicle id="4.8" depart="57.60" color="red">
        <route edges="817909960#4 817909960#5 -409101012#5 -409101012#4"/>
    </vehicle>
    <vehicle id="5.8" depart="57.60" color="yellow">
        <route edges="409101012#4 409101012#5 366065242#0"/>
    </vehicle>
    <vehicle id="6.8" depart="57.60" color="green">
        <route edges="615787306#8 615787306#9 366065241#0"/>
    </vehicle>
    <vehicle id="1.9" depart="64.80" color="red">
        <route edges="615787306#8 615787306#9 32577828#0 32577828#1"/>
    </vehicle>
    <vehicle id="2.9" depart="64.80" color="yellow">
        <route edges="817909960#5 -817085858 32577828#0 32577828#1"/>
    </vehicle>
    <vehicle id="3.9" depart="64.80" color="green">
        <route edges="409101012#5 -817085858 32577828#0 32577828#1"/>
    </vehicle>
    <vehicle id="4.9" depart="64.80" color="red">
        <route edges="817909960#4 817909960#5 -409101012#5 -409101012#4"/>
    </vehicle>
    <vehicle id="5.9" depart="64.80" color="yellow">
        <route edges="409101012#4 409101012#5 366065242#0"/>
    </vehicle>
    <vehicle id="6.9" depart="64.80" color="green">
        <route edges="615787306#8 615787306#9 366065241#0"/>
    </vehicle>
    <vehicle id="1.10" depart="72.00" color="red">
        <route edges="615787306#8 615787306#9 32577828#0 32577828#1"/>
    </vehicle>
    <vehicle id="2.10" depart="72.00" color="yellow">
        <route edges="817909960#5 -817085858 32577828#0 32577828#1"/>
    </vehicle>
    <vehicle id="3.10" depart="72.00" color="green">
        <route edges="409101012#5 -817085858 32577828#0 32577828#1"/>
    </vehicle>
    <vehicle id="4.10" depart="72.00" color="red">
        <route edges="817909960#4 817909960#5 -409101012#5 -409101012#4"/>
    </vehicle>
    <vehicle id="5.10" depart="72.00" color="yellow">
        <route edges="409101012#4 409101012#5 366065242#0"/>
    </vehicle>
    <vehicle id="6.10" depart="72.00" color="green">
        <route edges="615787306#8 615787306#9 366065241#0"/>
    </vehicle>
    <vehicle id="1.11" depart="79.20" color="red">
        <route edges="615787306#8 615787306#9 32577828#0 32577828#1"/>
    </vehicle>
    <vehicle id="2.11" depart="79.20" color="yellow">
        <route edges="817909960#5 -817085858 32577828#0 32577828#1"/>
    </vehicle>
    <vehicle id="3.11" depart="79.20" color="green">
        <route edges="409101012#5 -817085858 32577828#0 32577828#1"/>
    </vehicle>
    <vehicle id="4.11" depart="79.20" color="red">
        <route edges="817909960#4 817909960#5 -409101012#5 -409101012#4"/>
    </vehicle>
    <vehicle id="5.11" depart="79.20" color="yellow">
        <route edges="409101012#4 409101012#5 366065242#0"/>
    </vehicle>
    <vehicle id="6.11" depart="79.20" color="green">
        <route edges="615787306#8 615787306#9 366065241#0"/>
    </vehicle>
    <vehicle id="1.12" depart="86.40" color="red">
        <route edges="615787306#8 615787306#9 32577828#0 32577828#1"/>
    </vehicle>
    <vehicle id="2.12" depart="86.40" color="yellow">
        <route edges="817909960#5 -817085858 32577828#0 32577828#1"/>
    </vehicle>
    <vehicle id="3.12" depart="86.40" color="green">
        <route edges="409101012#5 -817085858 32577828#0 32577828#1"/>
    </vehicle>
    <vehicle id="4.12" depart="86.40" color="red">
        <route edges="817909960#4 817909960#5 -409101012#5 -409101012#4"/>
    </vehicle>
    <vehicle id="5.12" depart="86.40" color="yellow">
        <route edges="409101012#4 409101012#5 366065242#0"/>
    </vehicle>
    <vehicle id="6.12" depart="86.40" color="green">
        <route edges="615787306#8 615787306#9 366065241#0"/>
    </vehicle>
    <vehicle id="1.13" depart="93.60" color="red">
        <route edges="615787306#8 615787306#9 32577828#0 32577828#1"/>
    </vehicle>
    <vehicle id="2.13" depart="93.60" color="yellow">
        <route edges="817909960#5 -817085858 32577828#0 32577828#1"/>
    </vehicle>
    <vehicle id="3.13" depart="93.60" color="green">
        <route edges="409101012#5 -817085858 32577828#0 32577828#1"/>
    </vehicle>
    <vehicle id="4.13" depart="93.60" color="red">
        <route edges="817909960#4 817909960#5 -409101012#5 -409101012#4"/>
    </vehicle>
    <vehicle id="5.13" depart="93.60" color="yellow">
        <route edges="409101012#4 409101012#5 366065242#0"/>
    </vehicle>
    <vehicle id="6.13" depart="93.60" color="green">
        <route edges="615787306#8 615787306#9 366065241#0"/>
    </vehicle>
    <vehicle id="1.14" depart="100.80" color="red">
        <route edges="615787306#8 615787306#9 32577828#0 32577828#1"/>
    </vehicle>
    <vehicle id="2.14" depart="100.80" color="yellow">
        <route edges="817909960#5 -817085858 32577828#0 32577828#1"/>
    </vehicle>
    <vehicle id="3.14" depart="100.80" color="green">
        <route edges="409101012#5 -817085858 32577828#0 32577828#1"/>
    </vehicle>
    <vehicle id="4.14" depart="100.80" color="red">
        <route edges="817909960#4 817909960#5 -409101012#5 -409101012#4"/>
    </vehicle>
    <vehicle id="5.14" depart="100.80" color="yellow">
        <route edges="409101012#4 409101012#5 366065242#0"/>
    </vehicle>
    <vehicle id="6.14" depart="100.80" color="green">
        <route edges="615787306#8 615787306#9 366065241#0"/>
    </vehicle>
    <vehicle id="1.15" depart="108.00" color="red">
        <route edges="615787306#8 615787306#9 32577828#0 32577828#1"/>
    </vehicle>
    <vehicle id="2.15" depart="108.00" color="yellow">
        <route edges="817909960#5 -817085858 32577828#0 32577828#1"/>
    </vehicle>
    <vehicle id="3.15" depart="108.00" color="green">
        <route edges="409101012#5 -817085858 32577828#0 32577828#1"/>
    </vehicle>
    <vehicle id="4.15" depart="108.00" color="red">
        <route edges="817909960#4 817909960#5 -409101012#5 -409101012#4"/>
    </vehicle>
    <vehicle id="5.15" depart="108.00" color="yellow">
        <route edges="409101012#4 409101012#5 366065242#0"/>
    </vehicle>
    <vehicle id="6.15" depart="108.00" color="green">
        <route edges="615787306#8 615787306#9 366065241#0"/>
    </vehicle>
    <vehicle id="1.16" depart="115.20" color="red">
        <route edges="615787306#8 615787306#9 32577828#0 32577828#1"/>
    </vehicle>
    <vehicle id="2.16" depart="115.20" color="yellow">
        <route edges="817909960#5 -817085858 32577828#0 32577828#1"/>
    </vehicle>
    <vehicle id="3.16" depart="115.20" color="green">
        <route edges="409101012#5 -817085858 32577828#0 32577828#1"/>
    </vehicle>
    <vehicle id="4.16" depart="115.20" color="red">
        <route edges="817909960#4 817909960#5 -409101012#5 -409101012#4"/>
    </vehicle>
    <vehicle id="5.16" depart="115.20" color="yellow">
        <route edges="409101012#4 409101012#5 366065242#0"/>
    </vehicle>
    <vehicle id="6.16" depart="115.20" color="green">
        <route edges="615787306#8 615787306#9 366065241#0"/>
    </vehicle>
    <vehicle id="1.17" depart="122.40" color="red">
        <route edges="615787306#8 615787306#9 32577828#0 32577828#1"/>
    </vehicle>
    <vehicle id="2.17" depart="122.40" color="yellow">
        <route edges="817909960#5 -817085858 32577828#0 32577828#1"/>
    </vehicle>
    <vehicle id="3.17" depart="122.40" color="green">
        <route edges="409101012#5 -817085858 32577828#0 32577828#1"/>
    </vehicle>
    <vehicle id="4.17" depart="122.40" color="red">
        <route edges="817909960#4 817909960#5 -409101012#5 -409101012#4"/>
    </vehicle>
    <vehicle id="5.17" depart="122.40" color="yellow">
        <route edges="409101012#4 409101012#5 366065242#0"/>
    </vehicle>
    <vehicle id="6.17" depart="122.40" color="green">
        <route edges="615787306#8 615787306#9 366065241#0"/>
    </vehicle>
    <vehicle id="1.18" depart="129.60" color="red">
        <route edges="615787306#8 615787306#9 32577828#0 32577828#1"/>
    </vehicle>
    <vehicle id="2.18" depart="129.60" color="yellow">
        <route edges="817909960#5 -817085858 32577828#0 32577828#1"/>
    </vehicle>
    <vehicle id="3.18" depart="129.60" color="green">
        <route edges="409101012#5 -817085858 32577828#0 32577828#1"/>
    </vehicle>
    <vehicle id="4.18" depart="129.60" color="red">
        <route edges="817909960#4 817909960#5 -409101012#5 -409101012#4"/>
    </vehicle>
    <vehicle id="5.18" depart="129.60" color="yellow">
        <route edges="409101012#4 409101012#5 366065242#0"/>
    </vehicle>
    <vehicle id="6.18" depart="129.60" color="green">
        <route edges="615787306#8 615787306#9 366065241#0"/>
    </vehicle>
    <vehicle id="1.19" depart="136.80" color="red">
        <route edges="615787306#8 615787306#9 32577828#0 32577828#1"/>
    </vehicle>
    <vehicle id="2.19" depart="136.80" color="yellow">
        <route edges="817909960#5 -817085858 32577828#0 32577828#1"/>
    </vehicle>
    <vehicle id="3.19" depart="136.80" color="green">
        <route edges="409101012#5 -817085858 32577828#0 32577828#1"/>
    </vehicle>
    <vehicle id="4.19" depart="136.80" color="red">
        <route edges="817909960#4 817909960#5 -409101012#5 -409101012#4"/>
    </vehicle>
    <vehicle id="5.19" depart="136.80" color="yellow">
        <route edges="409101012#4 409101012#5 366065242#0"/>
    </vehicle>
    <vehicle id="6.19" depart="136.80" color="green">
        <route edges="615787306#8 615787306#9 366065241#0"/>
    </vehicle>
    <vehicle id="1.20" depart="144.00" color="red">
        <route edges="615787306#8 615787306#9 32577828#0 32577828#1"/>
    </vehicle>
    <vehicle id="2.20" depart="144.00" color="yellow">
        <route edges="817909960#5 -817085858 32577828#0 32577828#1"/>
    </vehicle>
    <vehicle id="3.20" depart="144.00" color="green">
        <route edges="409101012#5 -817085858 32577828#0 32577828#1"/>
    </vehicle>
    <vehicle id="4.20" depart="144.00" color="red">
        <route edges="817909960#4 817909960#5 -409101012#5 -409101012#4"/>
    </vehicle>
    <vehicle id="5.20" depart="144.00" color="yellow">
        <route edges="409101012#4 409101012#5 366065242#0"/>
    </vehicle>
    <vehicle id="6.20" depart="144.00" color="green">
        <route edges="615787306#8 615787306#9 366065241#0"/>
    </vehicle>
    <vehicle id="1.21" depart="151.20" color="red">
        <route edges="615787306#8 615787306#9 32577828#0 32577828#1"/>
    </vehicle>
    <vehicle id="2.21" depart="151.20" color="yellow">
        <route edges="817909960#5 -817085858 32577828#0 32577828#1"/>
    </vehicle>
    <vehicle id="3.21" depart="151.20" color="green">
        <route edges="409101012#5 -817085858 32577828#0 32577828#1"/>
    </vehicle>
    <vehicle id="4.21" depart="151.20" color="red">
        <route edges="817909960#4 817909960#5 -409101012#5 -409101012#4"/>
    </vehicle>
    <vehicle id="5.21" depart="151.20" color="yellow">
        <route edges="409101012#4 409101012#5 366065242#0"/>
    </vehicle>
    <vehicle id="6.21" depart="151.20" color="green">
        <route edges="615787306#8 615787306#9 366065241#0"/>
    </vehicle>
    <vehicle id="1.22" depart="158.40" color="red">
        <route edges="615787306#8 615787306#9 32577828#0 32577828#1"/>
    </vehicle>
    <vehicle id="2.22" depart="158.40" color="yellow">
        <route edges="817909960#5 -817085858 32577828#0 32577828#1"/>
    </vehicle>
    <vehicle id="3.22" depart="158.40" color="green">
        <route edges="409101012#5 -817085858 32577828#0 32577828#1"/>
    </vehicle>
    <vehicle id="4.22" depart="158.40" color="red">
        <route edges="817909960#4 817909960#5 -409101012#5 -409101012#4"/>
    </vehicle>
    <vehicle id="5.22" depart="158.40" color="yellow">
        <route edges="409101012#4 409101012#5 366065242#0"/>
    </vehicle>
    <vehicle id="6.22" depart="158.40" color="green">
        <route edges="615787306#8 615787306#9 366065241#0"/>
    </vehicle>
    <vehicle id="1.23" depart="165.60" color="red">
        <route edges="615787306#8 615787306#9 32577828#0 32577828#1"/>
    </vehicle>
    <vehicle id="2.23" depart="165.60" color="yellow">
        <route edges="817909960#5 -817085858 32577828#0 32577828#1"/>
    </vehicle>
    <vehicle id="3.23" depart="165.60" color="green">
        <route edges="409101012#5 -817085858 32577828#0 32577828#1"/>
    </vehicle>
    <vehicle id="4.23" depart="165.60" color="red">
        <route edges="817909960#4 817909960#5 -409101012#5 -409101012#4"/>
    </vehicle>
    <vehicle id="5.23" depart="165.60" color="yellow">
        <route edges="409101012#4 409101012#5 366065242#0"/>
    </vehicle>
    <vehicle id="6.23" depart="165.60" color="green">
        <route edges="615787306#8 615787306#9 366065241#0"/>
    </vehicle>
    <vehicle id="1.24" depart="172.80" color="red">
        <route edges="615787306#8 615787306#9 32577828#0 32577828#1"/>
    </vehicle>
    <vehicle id="2.24" depart="172.80" color="yellow">
        <route edges="817909960#5 -817085858 32577828#0 32577828#1"/>
    </vehicle>
    <vehicle id="3.24" depart="172.80" color="green">
        <route edges="409101012#5 -817085858 32577828#0 32577828#1"/>
    </vehicle>
    <vehicle id="4.24" depart="172.80" color="red">
        <route edges="817909960#4 817909960#5 -409101012#5 -409101012#4"/>
    </vehicle>
    <vehicle id="5.24" depart="172.80" color="yellow">
        <route edges="409101012#4 409101012#5 366065242#0"/>
    </vehicle>
    <vehicle id="6.24" depart="172.80" color="green">
        <route edges="615787306#8 615787306#9 366065241#0"/>
    </vehicle>
    <vehicle id="1.25" depart="180.00" color="red">
        <route edges="615787306#8 615787306#9 32577828#0 32577828#1"/>
    </vehicle>
    <vehicle id="2.25" depart="180.00" color="yellow">
        <route edges="817909960#5 -817085858 32577828#0 32577828#1"/>
    </vehicle>
    <vehicle id="3.25" depart="180.00" color="green">
        <route edges="409101012#5 -817085858 32577828#0 32577828#1"/>
    </vehicle>
    <vehicle id="4.25" depart="180.00" color="red">
        <route edges="817909960#4 817909960#5 -409101012#5 -409101012#4"/>
    </vehicle>
    <vehicle id="5.25" depart="180.00" color="yellow">
        <route edges="409101012#4 409101012#5 366065242#0"/>
    </vehicle>
    <vehicle id="6.25" depart="180.00" color="green">
        <route edges="615787306#8 615787306#9 366065241#0"/>
    </vehicle>
    <vehicle id="1.26" depart="187.20" color="red">
        <route edges="615787306#8 615787306#9 32577828#0 32577828#1"/>
    </vehicle>
    <vehicle id="2.26" depart="187.20" color="yellow">
        <route edges="817909960#5 -817085858 32577828#0 32577828#1"/>
    </vehicle>
    <vehicle id="3.26" depart="187.20" color="green">
        <route edges="409101012#5 -817085858 32577828#0 32577828#1"/>
    </vehicle>
    <vehicle id="4.26" depart="187.20" color="red">
        <route edges="817909960#4 817909960#5 -409101012#5 -409101012#4"/>
    </vehicle>
    <vehicle id="5.26" depart="187.20" color="yellow">
        <route edges="409101012#4 409101012#5 366065242#0"/>
    </vehicle>
    <vehicle id="6.26" depart="187.20" color="green">
        <route edges="615787306#8 615787306#9 366065241#0"/>
    </vehicle>
    <vehicle id="1.27" depart="194.40" color="red">
        <route edges="615787306#8 615787306#9 32577828#0 32577828#1"/>
    </vehicle>
    <vehicle id="2.27" depart="194.40" color="yellow">
        <route edges="817909960#5 -817085858 32577828#0 32577828#1"/>
    </vehicle>
    <vehicle id="3.27" depart="194.40" color="green">
        <route edges="409101012#5 -817085858 32577828#0 32577828#1"/>
    </vehicle>
    <vehicle id="4.27" depart="194.40" color="red">
        <route edges="817909960#4 817909960#5 -409101012#5 -409101012#4"/>
    </vehicle>
    <vehicle id="5.27" depart="194.40" color="yellow">
        <route edges="409101012#4 409101012#5 366065242#0"/>
    </vehicle>
    <vehicle id="6.27" depart="194.40" color="green">
        <route edges="615787306#8 615787306#9 366065241#0"/>
    </vehicle>
    <vehicle id="1.28" depart="201.60" color="red">
        <route edges="615787306#8 615787306#9 32577828#0 32577828#1"/>
    </vehicle>
    <vehicle id="2.28" depart="201.60" color="yellow">
        <route edges="817909960#5 -817085858 32577828#0 32577828#1"/>
    </vehicle>
    <vehicle id="3.28" depart="201.60" color="green">
        <route edges="409101012#5 -817085858 32577828#0 32577828#1"/>
    </vehicle>
    <vehicle id="4.28" depart="201.60" color="red">
        <route edges="817909960#4 817909960#5 -409101012#5 -409101012#4"/>
    </vehicle>
    <vehicle id="5.28" depart="201.60" color="yellow">
        <route edges="409101012#4 409101012#5 366065242#0"/>
    </vehicle>
    <vehicle id="6.28" depart="201.60" color="green">
        <route edges="615787306#8 615787306#9 366065241#0"/>
    </vehicle>
    <vehicle id="1.29" depart="208.80" color="red">
        <route edges="615787306#8 615787306#9 32577828#0 32577828#1"/>
    </vehicle>
    <vehicle id="2.29" depart="208.80" color="yellow">
        <route edges="817909960#5 -817085858 32577828#0 32577828#1"/>
    </vehicle>
    <vehicle id="3.29" depart="208.80" color="green">
        <route edges="409101012#5 -817085858 32577828#0 32577828#1"/>
    </vehicle>
    <vehicle id="4.29" depart="208.80" color="red">
        <route edges="817909960#4 817909960#5 -409101012#5 -409101012#4"/>
    </vehicle>
    <vehicle id="5.29" depart="208.80" color="yellow">
        <route edges="409101012#4 409101012#5 366065242#0"/>
    </vehicle>
    <vehicle id="6.29" depart="208.80" color="green">
        <route edges="615787306#8 615787306#9 366065241#0"/>
    </vehicle>
    <vehicle id="1.30" depart="216.00" color="red">
        <route edges="615787306#8 615787306#9 32577828#0 32577828#1"/>
    </vehicle>
    <vehicle id="2.30" depart="216.00" color="yellow">
        <route edges="817909960#5 -817085858 32577828#0 32577828#1"/>
    </vehicle>
    <vehicle id="3.30" depart="216.00" color="green">
        <route edges="409101012#5 -817085858 32577828#0 32577828#1"/>
    </vehicle>
    <vehicle id="4.30" depart="216.00" color="red">
        <route edges="817909960#4 817909960#5 -409101012#5 -409101012#4"/>
    </vehicle>
    <vehicle id="5.30" depart="216.00" color="yellow">
        <route edges="409101012#4 409101012#5 366065242#0"/>
    </vehicle>
    <vehicle id="6.30" depart="216.00" color="green">
        <route edges="615787306#8 615787306#9 366065241#0"/>
    </vehicle>
    <vehicle id="1.31" depart="223.20" color="red">
        <route edges="615787306#8 615787306#9 32577828#0 32577828#1"/>
    </vehicle>
    <vehicle id="2.31" depart="223.20" color="yellow">
        <route edges="817909960#5 -817085858 32577828#0 32577828#1"/>
    </vehicle>
    <vehicle id="3.31" depart="223.20" color="green">
        <route edges="409101012#5 -817085858 32577828#0 32577828#1"/>
    </vehicle>
    <vehicle id="4.31" depart="223.20" color="red">
        <route edges="817909960#4 817909960#5 -409101012#5 -409101012#4"/>
    </vehicle>
    <vehicle id="5.31" depart="223.20" color="yellow">
        <route edges="409101012#4 409101012#5 366065242#0"/>
    </vehicle>
    <vehicle id="6.31" depart="223.20" color="green">
        <route edges="615787306#8 615787306#9 366065241#0"/>
    </vehicle>
    <vehicle id="1.32" depart="230.40" color="red">
        <route edges="615787306#8 615787306#9 32577828#0 32577828#1"/>
    </vehicle>
    <vehicle id="2.32" depart="230.40" color="yellow">
        <route edges="817909960#5 -817085858 32577828#0 32577828#1"/>
    </vehicle>
    <vehicle id="3.32" depart="230.40" color="green">
        <route edges="409101012#5 -817085858 32577828#0 32577828#1"/>
    </vehicle>
    <vehicle id="4.32" depart="230.40" color="red">
        <route edges="817909960#4 817909960#5 -409101012#5 -409101012#4"/>
    </vehicle>
    <vehicle id="5.32" depart="230.40" color="yellow">
        <route edges="409101012#4 409101012#5 366065242#0"/>
    </vehicle>
    <vehicle id="6.32" depart="230.40" color="green">
        <route edges="615787306#8 615787306#9 366065241#0"/>
    </vehicle>
    <vehicle id="1.33" depart="237.60" color="red">
        <route edges="615787306#8 615787306#9 32577828#0 32577828#1"/>
    </vehicle>
    <vehicle id="2.33" depart="237.60" color="yellow">
        <route edges="817909960#5 -817085858 32577828#0 32577828#1"/>
    </vehicle>
    <vehicle id="3.33" depart="237.60" color="green">
        <route edges="409101012#5 -817085858 32577828#0 32577828#1"/>
    </vehicle>
    <vehicle id="4.33" depart="237.60" color="red">
        <route edges="817909960#4 817909960#5 -409101012#5 -409101012#4"/>
    </vehicle>
    <vehicle id="5.33" depart="237.60" color="yellow">
        <route edges="409101012#4 409101012#5 366065242#0"/>
    </vehicle>
    <vehicle id="6.33" depart="237.60" color="green">
        <route edges="615787306#8 615787306#9 366065241#0"/>
    </vehicle>
    <vehicle id="1.34" depart="244.80" color="red">
        <route edges="615787306#8 615787306#9 32577828#0 32577828#1"/>
    </vehicle>
    <vehicle id="2.34" depart="244.80" color="yellow">
        <route edges="817909960#5 -817085858 32577828#0 32577828#1"/>
    </vehicle>
    <vehicle id="3.34" depart="244.80" color="green">
        <route edges="409101012#5 -817085858 32577828#0 32577828#1"/>
    </vehicle>
    <vehicle id="4.34" depart="244.80" color="red">
        <route edges="817909960#4 817909960#5 -409101012#5 -409101012#4"/>
    </vehicle>
    <vehicle id="5.34" depart="244.80" color="yellow">
        <route edges="409101012#4 409101012#5 366065242#0"/>
    </vehicle>
    <vehicle id="6.34" depart="244.80" color="green">
        <route edges="615787306#8 615787306#9 366065241#0"/>
    </vehicle>
    <vehicle id="1.35" depart="252.00" color="red">
        <route edges="615787306#8 615787306#9 32577828#0 32577828#1"/>
    </vehicle>
    <vehicle id="2.35" depart="252.00" color="yellow">
        <route edges="817909960#5 -817085858 32577828#0 32577828#1"/>
    </vehicle>
    <vehicle id="3.35" depart="252.00" color="green">
        <route edges="409101012#5 -817085858 32577828#0 32577828#1"/>
    </vehicle>
    <vehicle id="4.35" depart="252.00" color="red">
        <route edges="817909960#4 817909960#5 -409101012#5 -409101012#4"/>
    </vehicle>
    <vehicle id="5.35" depart="252.00" color="yellow">
        <route edges="409101012#4 409101012#5 366065242#0"/>
    </vehicle>
    <vehicle id="6.35" depart="252.00" color="green">